! FMU ready
  Version,9.3;

  RunPeriod,
    Run Period 1,      !- Name
    1,                       !- Begin Month
    1,                       !- Begin Day of Month
    2019,                        !- Begin Year 2019
    12,                      !- End Month
    31,                      !- End Day of Month
    2021,                        !- End Year 2021
    Tuesday,                        !- Day of Week for Start Day Tuesday
    No,                      !- Use Weather File Holidays and Special Days
    No,                      !- Use Weather File Daylight Saving Period
    No,                     !- Apply Weekend Holiday Rule
    Yes,                     !- Use Weather File Rain Indicators
    Yes,                     !- Use Weather File Snow Indicators
    Yes;		     !- Treat Weather as Actual

! Hourly weather file: C:\ProgramData\DesignBuilder\Weather Data\FRA_STRASBOURG_IWEC.epw

  Site:Location,
    Nest (01-01:31-12),      !- Name
    47.24,                   !- Latitude {deg}
    8.36,                    !- Longitude {deg}
    1,                       !- Time Zone {hr}
    448.1;                   !- Elevation {m}

  Site:GroundTemperature:BuildingSurface,18,18,18,18,18,18,18,18,18,18,18,18;

  SimulationControl,
    Yes,                     !- Do Zone Sizing Calculation
    Yes,                     !- Do System Sizing Calculation
    Yes,                     !- Do Plant Sizing Calculation
    No,                      !- Run Simulation for Sizing Periods
    Yes;                     !- Run Simulation for Weather File Run Periods

  SizingPeriod:DesignDay,
    Summer Design Day in Nest (01-01:31-12) Jul,  !- Name
    7,                       !- Month
    15,                      !- Day of Month
    SummerDesignDay,         !- Day Type
    28.8,                    !- Maximum Dry-Bulb Temperature {C}
    8.7,                     !- Daily Dry-Bulb Temperature Range {deltaC}
    ,                        !- Dry-Bulb Temperature Range Modifier Type
    ,                        !- Dry-Bulb Temperature Range Modifier Day Schedule Name
    WetBulb,                 !- Humidity Condition Type
    19.1,                    !- Wetbulb or DewPoint at Maximum Dry-Bulb {C}
    ,                        !- Humidity Condition Day Schedule Name
    ,                        !- Humidity Ratio at Maximum Dry-Bulb {kgWater/kgDryAir}
    ,                        !- Enthalpy at Maximum Dry-Bulb {J/kg}
    ,                        !- Daily Wet-Bulb Temperature Range {deltaC}
    96056.4,                 !- Barometric Pressure {Pa}
    0,                       !- Wind Speed {m/s}
    0,                       !- Wind Direction {deg}
    No,                      !- Rain Indicator
    No,                      !- Snow Indicator
    No,                      !- Daylight Saving Time Indicator
    ,                        !- Solar Model Indicator
    ,                        !- Beam Solar Day Schedule Name
    ,                        !- Diffuse Solar Day Schedule Name
    ,                        !- ASHRAE Clear Sky Optical Depth for Beam Irradiance (taub) {dimensionless}
    ,                        !- ASHRAE Clear Sky Optical Depth for Diffuse Irradiance (taud) {dimensionless}
    0.98;                    !- Sky Clearness

  SizingPeriod:DesignDay,
    Winter Design Day in Nest (01-01:31-12),  !- Name
    1,                       !- Month
    15,                      !- Day of Month
    WinterDesignDay,         !- Day Type
    -8.4,                    !- Maximum Dry-Bulb Temperature {C}
    0,                       !- Daily Dry-Bulb Temperature Range {deltaC}
    ,                        !- Dry-Bulb Temperature Range Modifier Type
    ,                        !- Dry-Bulb Temperature Range Modifier Day Schedule Name
    WetBulb,                 !- Humidity Condition Type
    -8.4,                    !- Wetbulb or DewPoint at Maximum Dry-Bulb {C}
    ,                        !- Humidity Condition Day Schedule Name
    ,                        !- Humidity Ratio at Maximum Dry-Bulb {kgWater/kgDryAir}
    ,                        !- Enthalpy at Maximum Dry-Bulb {J/kg}
    ,                        !- Daily Wet-Bulb Temperature Range {deltaC}
    96056.4,                 !- Barometric Pressure {Pa}
    12.1,                    !- Wind Speed {m/s}
    0,                       !- Wind Direction {deg}
    No,                      !- Rain Indicator
    No,                      !- Snow Indicator
    No,                      !- Daylight Saving Time Indicator
    ,                        !- Solar Model Indicator
    ,                        !- Beam Solar Day Schedule Name
    ,                        !- Diffuse Solar Day Schedule Name
    ,                        !- ASHRAE Clear Sky Optical Depth for Beam Irradiance (taub) {dimensionless}
    ,                        !- ASHRAE Clear Sky Optical Depth for Diffuse Irradiance (taud) {dimensionless}
    0;                       !- Sky Clearness

  Timestep,60;

  ScheduleTypeLimits,
    Any Number;              !- Name

  ScheduleTypeLimits,
    Fraction,                !- Name
    0.0,                     !- Lower Limit Value
    1.0,                     !- Upper Limit Value
    CONTINUOUS;              !- Numeric Type

  ScheduleTypeLimits,
    Temperature,             !- Name
    -60,                     !- Lower Limit Value
    200,                     !- Upper Limit Value
    CONTINUOUS;              !- Numeric Type

  ScheduleTypeLimits,
    Control Type,            !- Name
    0,                       !- Lower Limit Value
    4,                       !- Upper Limit Value
    DISCRETE;                !- Numeric Type

  ScheduleTypeLimits,
    On/Off,                  !- Name
    0,                       !- Lower Limit Value
    1,                       !- Upper Limit Value
    DISCRETE;                !- Numeric Type

  Schedule:Compact,
    Cl,                      !- Name
    Fraction,              !- Schedule Type Limits Name
    Through: 12/31,          !- Field 1
    For: AllDays,            !- Field 2
    Until: 24:00,1;          !- Field 3

  Schedule:Compact,
    Ht,                     !- Name
    Fraction,              !- Schedule Type Limits Name
    Through: 12/31,          !- Field 1
    For: AllDays,            !- Field 2
    Until: 24:00,1;          !- Field 3


  Schedule:Compact,
    On,                      !- Name
    Any Number,              !- Schedule Type Limits Name
    Through: 12/31,          !- Field 1
    For: AllDays,            !- Field 2
    Until: 24:00,1;          !- Field 3

  Schedule:Compact,
    Off,                     !- Name
    Any Number,              !- Schedule Type Limits Name
    Through: 12/31,          !- Field 1
    For: AllDays,            !- Field 2
    Until: 24:00,0;          !- Field 3

  Schedule:Compact,
    Work efficiency,         !- Name
    Any Number,              !- Schedule Type Limits Name
    Through: 12/31,          !- Field 1
    For: AllDays,            !- Field 2
    Until: 24:00,0;          !- Field 3

  Schedule:Compact,
    OpaqueShade,             !- Name
    Any Number,              !- Schedule Type Limits Name
    Through: 12/31,          !- Field 1
    For: AllDays,            !- Field 2
    Until: 24:00,0;          !- Field 3

  Schedule:Compact,
    Zone Comfort Control Type Sched,  !- Name
    Control Type,            !- Schedule Type Limits Name
    Through: 12/31,          !- Field 1
    For: AllDays,            !- Field 2
    Until: 24:00,4;          !- Field 3

  Schedule:Compact,
    Design Days Only,        !- Name
    Any Number,              !- Schedule Type Limits Name
    Through: 12/31,          !- Field 1
    For: SummerDesignDay WinterDesignDay, !- Field 2
    Until: 24:00,1,          !- Field 3
    For: AllOtherDays,       !- Field 5
    Until: 24:00,0;          !- Field 6

! off heating day

  Schedule:Day:Hourly,
    0,                       !- Name
    Any Number,              !- Schedule Type Limits Name
    0,                       !- Hour 1
    0,                       !- Hour 2
    0,                       !- Hour 3
    0,                       !- Hour 4
    0,                       !- Hour 5
    0,                       !- Hour 6
    0,                       !- Hour 7
    0,                       !- Hour 8
    0,                       !- Hour 9
    0,                       !- Hour 10
    0,                       !- Hour 11
    0,                       !- Hour 12
    0,                       !- Hour 13
    0,                       !- Hour 14
    0,                       !- Hour 15
    0,                       !- Hour 16
    0,                       !- Hour 17
    0,                       !- Hour 18
    0,                       !- Hour 19
    0,                       !- Hour 20
    0,                       !- Hour 21
    0,                       !- Hour 22
    0,                       !- Hour 23
    0;                       !- Hour 24

! off cooling day

  Schedule:Day:Hourly,
    50,                      !- Name
    Any Number,              !- Schedule Type Limits Name
    50,                      !- Hour 1
    50,                      !- Hour 2
    50,                      !- Hour 3
    50,                      !- Hour 4
    50,                      !- Hour 5
    50,                      !- Hour 6
    50,                      !- Hour 7
    50,                      !- Hour 8
    50,                      !- Hour 9
    50,                      !- Hour 10
    50,                      !- Hour 11
    50,                      !- Hour 12
    50,                      !- Hour 13
    50,                      !- Hour 14
    50,                      !- Hour 15
    50,                      !- Hour 16
    50,                      !- Hour 17
    50,                      !- Hour 18
    50,                      !- Hour 19
    50,                      !- Hour 20
    50,                      !- Hour 21
    50,                      !- Hour 22
    50,                      !- Hour 23
    50;                      !- Hour 24

! used in seasonal schedules

  Schedule:Day:Hourly,
    Off,                     !- Name
    Fraction,                !- Schedule Type Limits Name
    0,                       !- Hour 1
    0,                       !- Hour 2
    0,                       !- Hour 3
    0,                       !- Hour 4
    0,                       !- Hour 5
    0,                       !- Hour 6
    0,                       !- Hour 7
    0,                       !- Hour 8
    0,                       !- Hour 9
    0,                       !- Hour 10
    0,                       !- Hour 11
    0,                       !- Hour 12
    0,                       !- Hour 13
    0,                       !- Hour 14
    0,                       !- Hour 15
    0,                       !- Hour 16
    0,                       !- Hour 17
    0,                       !- Hour 18
    0,                       !- Hour 19
    0,                       !- Hour 20
    0,                       !- Hour 21
    0,                       !- Hour 22
    0,                       !- Hour 23
    0;                       !- Hour 24

  Schedule:Week:Daily,
    Off,                     !- Name
    Off,                     !- Sunday Schedule:Day Name
    Off,                     !- Monday Schedule:Day Name
    Off,                     !- Tuesday Schedule:Day Name
    Off,                     !- Wednesday Schedule:Day Name
    Off,                     !- Thursday Schedule:Day Name
    Off,                     !- Friday Schedule:Day Name
    Off,                     !- Saturday Schedule:Day Name
    Off,                     !- Holiday Schedule:Day Name
    Off,                     !- SummerDesignDay Schedule:Day Name
    Off,                     !- WinterDesignDay Schedule:Day Name
    Off,                     !- CustomDay1 Schedule:Day Name
    Off;                     !- CustomDay2 Schedule:Day Name

! -------------------- Control type schedules (for heating & cooling) ----------------------

  Schedule:Day:Hourly,
    Summer Control Type Day Sch,  !- Name
    Control Type,            !- Schedule Type Limits Name
    4,                       !- Hour 1
    4,                       !- Hour 2
    4,                       !- Hour 3
    4,                       !- Hour 4
    4,                       !- Hour 5
    4,                       !- Hour 6
    4,                       !- Hour 7
    4,                       !- Hour 8
    4,                       !- Hour 9
    4,                       !- Hour 10
    4,                       !- Hour 11
    4,                       !- Hour 12
    4,                       !- Hour 13
    4,                       !- Hour 14
    4,                       !- Hour 15
    4,                       !- Hour 16
    4,                       !- Hour 17
    4,                       !- Hour 18
    4,                       !- Hour 19
    4,                       !- Hour 20
    4,                       !- Hour 21
    4,                       !- Hour 22
    4,                       !- Hour 23
    4;                       !- Hour 24

  Schedule:Day:Hourly,
    Winter Control Type Day Sch,  !- Name
    Control Type,            !- Schedule Type Limits Name
    4,                       !- Hour 1
    4,                       !- Hour 2
    4,                       !- Hour 3
    4,                       !- Hour 4
    4,                       !- Hour 5
    4,                       !- Hour 6
    4,                       !- Hour 7
    4,                       !- Hour 8
    4,                       !- Hour 9
    4,                       !- Hour 10
    4,                       !- Hour 11
    4,                       !- Hour 12
    4,                       !- Hour 13
    4,                       !- Hour 14
    4,                       !- Hour 15
    4,                       !- Hour 16
    4,                       !- Hour 17
    4,                       !- Hour 18
    4,                       !- Hour 19
    4,                       !- Hour 20
    4,                       !- Hour 21
    4,                       !- Hour 22
    4,                       !- Hour 23
    4;                       !- Hour 24

  Schedule:Day:Hourly,
    Summer Control Type Day Sch - cool,  !- Name
    Control Type,            !- Schedule Type Limits Name
    2,                       !- Hour 1
    2,                       !- Hour 2
    2,                       !- Hour 3
    2,                       !- Hour 4
    2,                       !- Hour 5
    2,                       !- Hour 6
    2,                       !- Hour 7
    2,                       !- Hour 8
    2,                       !- Hour 9
    2,                       !- Hour 10
    2,                       !- Hour 11
    2,                       !- Hour 12
    2,                       !- Hour 13
    2,                       !- Hour 14
    2,                       !- Hour 15
    2,                       !- Hour 16
    2,                       !- Hour 17
    2,                       !- Hour 18
    2,                       !- Hour 19
    2,                       !- Hour 20
    2,                       !- Hour 21
    2,                       !- Hour 22
    2,                       !- Hour 23
    2;                       !- Hour 24

  Schedule:Day:Hourly,
    Winter Control Type Day Sch - heat,  !- Name
    Control Type,            !- Schedule Type Limits Name
    1,                       !- Hour 1
    1,                       !- Hour 2
    1,                       !- Hour 3
    1,                       !- Hour 4
    1,                       !- Hour 5
    1,                       !- Hour 6
    1,                       !- Hour 7
    1,                       !- Hour 8
    1,                       !- Hour 9
    1,                       !- Hour 10
    1,                       !- Hour 11
    1,                       !- Hour 12
    1,                       !- Hour 13
    1,                       !- Hour 14
    1,                       !- Hour 15
    1,                       !- Hour 16
    1,                       !- Hour 17
    1,                       !- Hour 18
    1,                       !- Hour 19
    1,                       !- Hour 20
    1,                       !- Hour 21
    1,                       !- Hour 22
    1,                       !- Hour 23
    1;                       !- Hour 24

  Schedule:Week:Daily,
    Summer Control Type Week Sch,  !- Name
    Summer Control Type Day Sch,  !- Sunday Schedule:Day Name
    Summer Control Type Day Sch,  !- Monday Schedule:Day Name
    Summer Control Type Day Sch,  !- Tuesday Schedule:Day Name
    Summer Control Type Day Sch,  !- Wednesday Schedule:Day Name
    Summer Control Type Day Sch,  !- Thursday Schedule:Day Name
    Summer Control Type Day Sch,  !- Friday Schedule:Day Name
    Summer Control Type Day Sch,  !- Saturday Schedule:Day Name
    Summer Control Type Day Sch,  !- Holiday Schedule:Day Name
    Summer Control Type Day Sch,  !- SummerDesignDay Schedule:Day Name
    Summer Control Type Day Sch,  !- WinterDesignDay Schedule:Day Name
    Summer Control Type Day Sch,  !- CustomDay1 Schedule:Day Name
    Summer Control Type Day Sch;  !- CustomDay2 Schedule:Day Name

  Schedule:Week:Daily,
    Winter Control Type Week Sch,  !- Name
    Winter Control Type Day Sch,  !- Sunday Schedule:Day Name
    Winter Control Type Day Sch,  !- Monday Schedule:Day Name
    Winter Control Type Day Sch,  !- Tuesday Schedule:Day Name
    Winter Control Type Day Sch,  !- Wednesday Schedule:Day Name
    Winter Control Type Day Sch,  !- Thursday Schedule:Day Name
    Winter Control Type Day Sch,  !- Friday Schedule:Day Name
    Winter Control Type Day Sch,  !- Saturday Schedule:Day Name
    Winter Control Type Day Sch,  !- Holiday Schedule:Day Name
    Winter Control Type Day Sch,  !- SummerDesignDay Schedule:Day Name
    Winter Control Type Day Sch,  !- WinterDesignDay Schedule:Day Name
    Winter Control Type Day Sch,  !- CustomDay1 Schedule:Day Name
    Winter Control Type Day Sch;  !- CustomDay2 Schedule:Day Name

  Schedule:Week:Daily,
    Summer Control Type Week Sch - cool,  !- Name
    Summer Control Type Day Sch - cool,  !- Sunday Schedule:Day Name
    Summer Control Type Day Sch - cool,  !- Monday Schedule:Day Name
    Summer Control Type Day Sch - cool,  !- Tuesday Schedule:Day Name
    Summer Control Type Day Sch - cool,  !- Wednesday Schedule:Day Name
    Summer Control Type Day Sch - cool,  !- Thursday Schedule:Day Name
    Summer Control Type Day Sch - cool,  !- Friday Schedule:Day Name
    Summer Control Type Day Sch - cool,  !- Saturday Schedule:Day Name
    Summer Control Type Day Sch - cool,  !- Holiday Schedule:Day Name
    Summer Control Type Day Sch - cool,  !- SummerDesignDay Schedule:Day Name
    Summer Control Type Day Sch - cool,  !- WinterDesignDay Schedule:Day Name
    Summer Control Type Day Sch - cool,  !- CustomDay1 Schedule:Day Name
    Summer Control Type Day Sch - cool;  !- CustomDay2 Schedule:Day Name

  Schedule:Week:Daily,
    Winter Control Type Week Sch - heat,  !- Name
    Winter Control Type Day Sch - heat,  !- Sunday Schedule:Day Name
    Winter Control Type Day Sch - heat,  !- Monday Schedule:Day Name
    Winter Control Type Day Sch - heat,  !- Tuesday Schedule:Day Name
    Winter Control Type Day Sch - heat,  !- Wednesday Schedule:Day Name
    Winter Control Type Day Sch - heat,  !- Thursday Schedule:Day Name
    Winter Control Type Day Sch - heat,  !- Friday Schedule:Day Name
    Winter Control Type Day Sch - heat,  !- Saturday Schedule:Day Name
    Winter Control Type Day Sch - heat,  !- Holiday Schedule:Day Name
    Winter Control Type Day Sch - heat,  !- SummerDesignDay Schedule:Day Name
    Winter Control Type Day Sch - heat,  !- WinterDesignDay Schedule:Day Name
    Winter Control Type Day Sch - heat,  !- CustomDay1 Schedule:Day Name
    Winter Control Type Day Sch - heat;  !- CustomDay2 Schedule:Day Name

!Material:InfraredTransparent,
!IRTMaterial; !- Name
!Construction,
!IRTSurface,  !- Name
!IRTMaterial; !- Outside Layer

  Material:NoMass,
    LinearBridgingLayer,     !- Name
    Rough,                   !- Roughness
    0.6267,                  !- Thermal Resistance {m2-K/W}
    0.0100000,               !- Thermal Absorptance
    0.0100000,               !- Solar Absorptance
    0.0100000;               !- Visible Absorptance

  Construction,
    LinearBridgingConstruction,  !- Name
    LinearBridgingLayer;     !- Outside Layer

  Schedule:Compact,
    TypOperativeTempControlSch,  !- Name
    Temperature,             !- Schedule Type Limits Name
    Through: 31 Dec,         !- Field 1
    For: SummerDesignDay WinterDesignDay, !- Field 2
    Until: 24:00,0.0,        !- Field 3
    For: AllOtherDays,       !- Field 5
    Until: 24:00,0.5;        !- Field 6

  Schedule:Compact,
    AirVelocitySchedule,     !- Name
    Any Number,              !- Schedule Type Limits Name
    Through: 12/31,          !- Field 1
    For: AllDays,            !- Field 2
    Until: 24:00,.137;       !- Field 3

  Material:InfraredTransparent,
    IRTMaterial;             !- Name

  Construction,
    IRTSurface,              !- Name
    IRTMaterial;             !- Outside Layer

  RunPeriodControl:SpecialDays,
    New Years Day,           !- Name
    1 Jan,                   !- Start Date
    1,                       !- Duration {days}
    Holiday;                 !- Special Day Type

  RunPeriodControl:SpecialDays,
    Christmas Day,           !- Name
    25 Dec,                  !- Start Date
    1,                       !- Duration {days}
    Holiday;                 !- Special Day Type

  RunPeriodControl:SpecialDays,
    Boxing Day,              !- Name
    26 Dec,                  !- Start Date
    1,                       !- Duration {days}
    Holiday;                 !- Special Day Type

  RunPeriodControl:SpecialDays,
    Easter Monday,           !- Name
    2nd Monday in April,     !- Start Date
    1,                       !- Duration {days}
    Holiday;                 !- Special Day Type

  RunPeriodControl:SpecialDays,
    Easter Sunday,           !- Name
    1st Sunday in April,     !- Start Date
    1,                       !- Duration {days}
    Holiday;                 !- Special Day Type

! Schedule: On 24/7

  Schedule:Compact,
    On 24/7,                 !- Name
    Any Number,              !- Schedule Type Limits Name
    Through: 12/31,          !- Field 1
    For: AllDays,            !- Field 2
    Until: 24:00,1;          !- Field 3

! Schedule: Off 24/7

  Schedule:Compact,
    Off 24/7,                !- Name
    Any Number,              !- Schedule Type Limits Name
    Through: 12/31,          !- Field 1
    For: AllDays,            !- Field 2
    Until: 24:00,0;          !- Field 3

! Schedule: Heating set point schedule

  Schedule:Compact,
    Heating set point schedule,  !- Name
    Any Number,              !- Schedule Type Limits Name
    Through: 12/31,          !- Field 1
    For: AllDays,            !- Field 2
    Until: 24:00,22;         !- Field 3

! Schedule: Cooling set point schedule

  Schedule:Compact,
    Cooling set point schedule,  !- Name
    Any Number,              !- Schedule Type Limits Name
    Through: 12/31,          !- Field 1
    For: AllDays,            !- Field 2
    Until: 24:00,24;         !- Field 3

! Schedule: Control type schedule: Always 4

  Schedule:Compact,
    Control type schedule: Always 4,  !- Name
    Any Number,              !- Schedule Type Limits Name
    Through: 12/31,          !- Field 1
    For: AllDays,            !- Field 2
    Until: 24:00,4;          !- Field 3


! Schedule: Control type schedule: notAlways 4

  Schedule:Compact,
    Control type schedule: notAlways 4,  !- Name
    Any Number,              !- Schedule Type Limits Name
    Through: 1/1,
    For: AllDays,
    Until: 24:00,1,
    Through: 12/31,          !- Field 1
    For: AllDays,            !- Field 2
    Until: 24:00,3;          !- Field 3


! Schedule: Control type schedule: Always 3

  Schedule:Compact,
    Control type schedule: Always 3,  !- Name
    Any Number,              !- Schedule Type Limits Name
    Through: 12/31,          !- Field 1
    For: AllDays,            !- Field 2
    Until: 24:00,3;          !- Field 3

! Schedule: Heating high water temperature schedule: Always 50.00

  Schedule:Compact,
    Heating high water temperature schedule: Always 50.00,  !- Name
    Any Number,              !- Schedule Type Limits Name
    Through: 12/31,          !- Field 1
    For: AllDays,            !- Field 2
    Until: 24:00,50;         !- Field 3

! Schedule: Heating low water temperature schedule: Always 42.00

  Schedule:Compact,
    Heating low water temperature schedule: Always 42.00,  !- Name
    Any Number,              !- Schedule Type Limits Name
    Through: 12/31,          !- Field 1
    For: AllDays,            !- Field 2
    Until: 24:00,42;         !- Field 3

! Schedule: Heating low control temperature schedule: Always 7.00

  Schedule:Compact,
    Heating low control temperature schedule: Always 7.00,  !- Name
    Any Number,              !- Schedule Type Limits Name
    Through: 12/31,          !- Field 1
    For: AllDays,            !- Field 2
    Until: 24:00,7;         !- Field 3

! Schedule: Heating high control temperature schedule: Always 21.00

  Schedule:Compact,
    Heating high control temperature schedule: Always 21.00,  !- Name
    Any Number,              !- Schedule Type Limits Name
    Through: 12/31,          !- Field 1
    For: AllDays,            !- Field 2
    Until: 24:00,21;         !- Field 3

! Schedule: Cooling high water temperature schedule: Always 15.00

  Schedule:Compact,
    Cooling high water temperature schedule: Always 15.00,  !- Name
    Any Number,              !- Schedule Type Limits Name
    Through: 12/31,          !- Field 1
    For: AllDays,            !- Field 2
    Until: 24:00,15;         !- Field 3

! Schedule: Cooling low water temperature schedule: Always 10.00

  Schedule:Compact,
    Cooling low water temperature schedule: Always 10.00,  !- Name
    Any Number,              !- Schedule Type Limits Name
    Through: 12/31,          !- Field 1
    For: AllDays,            !- Field 2
    Until: 24:00,10;         !- Field 3

! Schedule: Cooling low control temperature schedule: Always 22.00

  Schedule:Compact,
    Cooling low control temperature schedule: Always 22.00,  !- Name
    Any Number,              !- Schedule Type Limits Name
    Through: 12/31,          !- Field 1
    For: AllDays,            !- Field 2
    Until: 24:00,22;         !- Field 3

! Schedule: Cooling high control temperature schedule: Always 26.00

  Schedule:Compact,
    Cooling high control temperature schedule: Always 26.00,  !- Name
    Any Number,              !- Schedule Type Limits Name
    Through: 12/31,          !- Field 1
    For: AllDays,            !- Field 2
    Until: 24:00,26;         !- Field 3

! Schedule: Domestic hot water setpoint temperature: Always 55.00

  Schedule:Compact,
    Domestic hot water setpoint temperature: Always 55.00,  !- Name
    Any Number,              !- Schedule Type Limits Name
    Through: 12/31,          !- Field 1
    For: AllDays,            !- Field 2
    Until: 24:00,55;         !- Field 3

! Schedule: Water heater ambient temperature schedule: Always 20.00

  Schedule:Compact,
    Water heater ambient temperature schedule: Always 20.00,  !- Name
    Any Number,              !- Schedule Type Limits Name
    Through: 12/31,          !- Field 1
    For: AllDays,            !- Field 2
    Until: 24:00,20;         !- Field 3

! Schedule: Cold water supply temperature schedule: Always 10.00

  Schedule:Compact,
    Cold water supply temperature schedule: Always 10.00,  !- Name
    Any Number,              !- Schedule Type Limits Name
    Through: 12/31,          !- Field 1
    For: AllDays,            !- Field 2
    Until: 24:00,10;         !- Field 3

! Schedule: Relative humidity setpoint schedule: Always 50.00

  Schedule:Compact,
    Relative humidity setpoint schedule: Always 50.00,  !- Name
    Any Number,              !- Schedule Type Limits Name
    Through: 12/31,          !- Field 1
    For: AllDays,            !- Field 2
    Until: 24:00,50;         !- Field 3

! Schedule: Heating Fanger comfort setpoint: Always -0.5

  Schedule:Compact,
    Heating Fanger comfort setpoint: Always -0.5,  !- Name
    Any Number,              !- Schedule Type Limits Name
    Through: 12/31,          !- Field 1
    For: AllDays,            !- Field 2
    Until: 24:00,-0.5;       !- Field 3

! Schedule: Cooling Fanger comfort setpoint: Always  0.1

  Schedule:Compact,
    Cooling Fanger comfort setpoint: Always  0.1,  !- Name
    Any Number,              !- Schedule Type Limits Name
    Through: 12/31,          !- Field 1
    For: AllDays,            !- Field 2
    Until: 24:00,0.1;        !- Field 3

! Schedule: Zone CO2 setpoint: Always 900ppm

  Schedule:Compact,
    Zone CO2 setpoint: Always 900ppm,  !- Name
    Any Number,              !- Schedule Type Limits Name
    Through: 12/31,          !- Field 1
    For: AllDays,            !- Field 2
    Until: 24:00,900;        !- Field 3

! Schedule: Min CO2 concentration: Always 600ppm

  Schedule:Compact,
    Min CO2 concentration: Always 600ppm,  !- Name
    Any Number,              !- Schedule Type Limits Name
    Through: 12/31,          !- Field 1
    For: AllDays,            !- Field 2
    Until: 24:00,600;        !- Field 3

! Schedule: Generic contaminant setpoint: Always 0.5ppm

  Schedule:Compact,
    Generic contaminant setpoint: Always 0.5ppm,  !- Name
    Any Number,              !- Schedule Type Limits Name
    Through: 12/31,          !- Field 1
    For: AllDays,            !- Field 2
    Until: 24:00,0.5;        !- Field 3

! Schedule: Air distribution effectiveness (always 1)

  Schedule:Compact,
    Air distribution effectiveness (always 1),  !- Name
    Any Number,              !- Schedule Type Limits Name
    Through: 12/31,          !- Field 1